* File: neuron.pex.netlist.pex
* Created: Mon Dec  8 18:14:57 2025
* Program "Calibre xACT"
* Version "v2024.4_39.16"
* Nominal Temperature: 25C
* Circuit Temperature: 27C
* 
.subckt PM_NEURON_VSS 1 3 5 7 8 11 13 16 20 22 23 24 25 28 29 30 33 36 38 40 42
+ 44 46 48 49 50 53 55 57 59 60 61 62 64 66 67 68 71 76 78 79 83 84 87 88 90 91
+ 93 124 131 159 166 325 380 496 628 644 656 660 686 690 697 709 713 719 724 732
+ 736 744 760 768 778 794 806 819 831 841 848 853 860 878 895 907 919 932 936
+ 952 969 981 985 997 1001 1013 1018 1051 1059 1071 1075 1081 1089 1093 1101
+ 1109 1133 1141 1149 1165 1177 1185 1197 1205 1215 1230 1235 1242 1250 1267
+ 1280 1288 1300 1308 1332 1340 1352 1360 1364 1372 1388 1407 1426 1427 1428
+ 1429 1430 1431 1432 1433 1434 1435 1436 1437 1438 1439 1440 1441 1442 1443
+ 1444 1445 1446 1447 1448 1449 1450 1451 1452 1453 1454 1455 1456 1457 1458
+ 1459 1460 1461 1462 1463 1464 1465 1466 1467 1468 1469 1470 1471 1472 1473
+ 1474 1475 1476 1477 1478 1479 1480 1481 1482 1483 1484 1485 1486 1487 1488
+ 1489 1490 1491 1492 1493 1494 1495 1496 1497 1498 1499 1500 1501 1502 1503
+ 1504 1505 1506 1507 1508 1509 1510 1511 1512 1513 1514 1515 1516 1517 1518
+ 1519 1520 1521 1522 1523 1524 1525 1526 1527 1528 1529 1530 1531 1532 1533
+ 1534 1535 1536 1537 1538 1539 1843 2078 2079 2080 2081 2082 2083 2084 2085
+ 2086 2087 2088 2089 2090 2091 2092 2093 2094 2095 2096 2097 2098 2099 2100
+ 2101 2102 2103 2104 2105 2106 2107 2133 2158 2176 2224 2263 2310 2364 2444
+ 2511
c1540 2511 0 0.00131446f
c1541 2444 0 2.8374e-19
c1542 2364 0 0.00546827f
c1543 2310 0 0.00754367f
c1544 2263 0 0.00783875f
c1545 2224 0 0.00945977f
c1546 2176 0 0.0269779f
c1547 2158 0 0.015303f
c1548 2133 0 0.0194449f
c1549 2105 0 0.0166937f
c1550 2099 0 0.0114834f
c1551 2088 0 0.00664726f
c1552 1539 0 0.0380975f
c1553 1538 0 0.00158218f
c1554 1537 0 0.00174995f
c1555 1534 0 0.0380968f
c1556 1533 0 0.0275051f
c1557 1532 0 0.027517f
c1558 1527 0 0.0279888f
c1559 1526 0 0.0281388f
c1560 1525 0 0.0276956f
c1561 1524 0 0.0278269f
c1562 1523 0 0.0381727f
c1563 1518 0 0.0377574f
c1564 1517 0 0.0381538f
c1565 1516 0 0.0280584f
c1566 1515 0 0.028156f
c1567 1514 0 0.0276957f
c1568 1513 0 0.0275056f
c1569 1510 0 0.00158525f
c1570 1504 0 0.027666f
c1571 1503 0 0.0278592f
c1572 1502 0 0.0279888f
c1573 1501 0 0.0279639f
c1574 1499 0 0.0276956f
c1575 1498 0 0.0275135f
c1576 1497 0 0.00157524f
c1577 1493 0 0.0276224f
c1578 1489 0 0.0279888f
c1579 1488 0 0.0280174f
c1580 1487 0 0.0276803f
c1581 1486 0 0.0276679f
c1582 1485 0 0.027732f
c1583 1478 0 0.0279531f
c1584 1477 0 0.0279997f
c1585 1476 0 0.0279433f
c1586 1475 0 0.0278269f
c1587 1472 0 0.0382213f
c1588 1469 0 0.0281177f
c1589 1468 0 0.00172279f
c1590 1467 0 0.0378506f
c1591 1466 0 0.0380989f
c1592 1464 0 0.0278733f
c1593 1463 0 0.0276365f
c1594 1459 0 0.00167095f
c1595 1458 0 0.00158525f
c1596 1453 0 0.027666f
c1597 1452 0 0.0278592f
c1598 1451 0 0.00173381f
c1599 1449 0 0.0276304f
c1600 1448 0 0.027998f
c1601 1446 0 0.0275135f
c1602 1445 0 0.00157524f
c1603 1443 0 0.00171725f
c1604 1439 0 0.0278144f
c1605 1436 0 0.0277867f
c1606 1435 0 0.027818f
c1607 1434 0 0.0280195f
c1608 1433 0 0.0276973f
c1609 1432 0 0.0276585f
c1610 1429 0 0.0276874f
c1611 1428 0 0.0279556f
c1612 1427 0 0.0380813f
c1613 1426 0 0.0377393f
c1614 1407 0 0.00258956f
c1615 1388 0 0.00538028f
c1616 1372 0 0.0297403f
c1617 1364 0 0.0299695f
c1618 1360 0 0.0279997f
c1619 1352 0 0.0281725f
c1620 1340 0 0.00272188f
c1621 1332 0 0.00308248f
c1622 1308 0 0.0303676f
c1623 1300 0 0.0305312f
c1624 1288 0 0.0279997f
c1625 1280 0 0.0281753f
c1626 1267 0 0.00181324f
c1627 1250 0 0.00226795f
c1628 1242 0 0.00233153f
c1629 1235 0 0.030427f
c1630 1230 0 0.027686f
c1631 1215 0 0.00165504f
c1632 1205 0 0.0298969f
c1633 1197 0 0.0302073f
c1634 1185 0 0.0279997f
c1635 1177 0 0.0279934f
c1636 1165 0 0.0028106f
c1637 1149 0 0.00239456f
c1638 1141 0 0.0030458f
c1639 1133 0 0.0293468f
c1640 1109 0 0.00163425f
c1641 1101 0 0.0303676f
c1642 1093 0 0.030657f
c1643 1089 0 0.0280245f
c1644 1081 0 0.0279259f
c1645 1075 0 0.00662716f
c1646 1071 0 0.0280779f
c1647 1059 0 0.00266024f
c1648 1051 0 0.00296287f
c1649 1018 0 0.0398865f
c1650 1013 0 0.0379234f
c1651 1001 0 0.0298542f
c1652 997 0 0.0276396f
c1653 985 0 0.0303067f
c1654 981 0 0.0281725f
c1655 969 0 0.00328835f
c1656 952 0 0.0030362f
c1657 936 0 0.0299f
c1658 932 0 0.0276597f
c1659 919 0 0.0306055f
c1660 907 0 0.0281753f
c1661 895 0 0.00305361f
c1662 878 0 0.00181778f
c1663 860 0 0.00291976f
c1664 853 0 0.030427f
c1665 848 0 0.027686f
c1666 841 0 0.0017078f
c1667 831 0 0.0311304f
c1668 819 0 0.029583f
c1669 806 0 0.0279934f
c1670 794 0 0.0028106f
c1671 778 0 0.0019411f
c1672 768 0 0.0064633f
c1673 760 0 0.0293468f
c1674 744 0 0.00163425f
c1675 736 0 0.00191629f
c1676 732 0 0.0279949f
c1677 724 0 0.0301952f
c1678 719 0 0.0279259f
c1679 713 0 0.00647749f
c1680 709 0 0.0280779f
c1681 697 0 0.003867f
c1682 690 0 0.00254491f
c1683 686 0 0.00216504f
c1684 660 0 0.031161f
c1685 656 0 0.0281698f
c1686 644 0 0.00281075f
c1687 628 0 0.00219845f
c1688 496 0 0.105615f
c1689 380 0 0.0025388f
c1690 325 0 0.114857f
c1691 166 0 0.0849549f
c1692 159 0 0.00132261f
c1693 131 0 0.00194775f
c1694 124 0 0.00132261f
c1695 99 0 1.23291e-19
c1696 98 0 1.23291e-19
c1697 97 0 1.56371e-19
c1698 96 0 1.77082e-19
c1699 95 0 1.30251e-19
c1700 93 0 0.00137387f
c1701 91 0 0.00298226f
c1702 90 0 0.0838444f
c1703 88 0 0.00251012f
c1704 87 0 0.00281102f
c1705 84 0 0.00236183f
c1706 83 0 0.00241882f
c1707 79 0 0.00325364f
c1708 78 0 0.00302947f
c1709 76 0 0.0019649f
c1710 71 0 0.00236942f
c1711 68 0 8.24661e-19
c1712 67 0 0.00329824f
c1713 66 0 0.00337514f
c1714 64 0 0.101439f
c1715 62 0 0.107776f
c1716 61 0 0.122534f
c1717 60 0 0.00239356f
c1718 59 0 0.00245388f
c1719 57 0 0.0749057f
c1720 55 0 0.00325357f
c1721 53 0 0.00236158f
c1722 50 0 0.00216336f
c1723 49 0 0.00209167f
c1724 48 0 0.00180161f
c1725 46 0 0.00218697f
c1726 44 0 0.00313023f
c1727 42 0 0.002925f
c1728 40 0 0.00328795f
c1729 38 0 0.00236185f
c1730 36 0 0.0040379f
c1731 33 0 0.00334178f
c1732 30 0 0.129409f
c1733 29 0 0.0961384f
c1734 28 0 0.121424f
c1735 25 0 0.073944f
c1736 24 0 0.00185292f
c1737 23 0 8.24341e-19
c1738 22 0 0.00337507f
c1739 20 0 0.0034471f
c1740 16 0 0.00246056f
c1741 13 0 0.00366959f
c1742 11 0 0.00236158f
c1743 8 0 0.00326017f
c1744 7 0 0.00216343f
c1745 5 0 0.00337787f
c1746 3 0 0.00194512f
c1747 1 0 0.00233352f
r1748 2631 2632 6.29612
r1749 2630 2631 7.92845
r1750 2629 2630 4.66379
r1751 2628 2632 26.8168
r1752 2624 2629 3.38125
r1753 2624 2625 29.7317
r1754 2620 2621 6.29612
r1755 2619 2620 7.92845
r1756 2618 2619 4.66379
r1757 2617 2621 26.8168
r1758 2614 2615 23.7854
r1759 2613 2618 3.38125
r1760 2613 2615 4.5472
r1761 2608 2609 6.29612
r1762 2607 2608 7.92845
r1763 2606 2607 4.66379
r1764 2605 2609 26.8168
r1765 2602 2606 3.38125
r1766 2602 2603 29.7317
r1767 2598 2599 6.29612
r1768 2597 2598 7.92845
r1769 2596 2597 4.66379
r1770 2595 2599 26.8168
r1771 2592 2596 3.38125
r1772 2587 2588 6.52931
r1773 2586 2587 2.09871
r1774 2585 2586 10.4935
r1775 2584 2590 8.39483
r1776 2584 2588 1.86552
r1777 2579 2580 21.9198
r1778 2576 2580 27.1666
r1779 2576 2577 21.8032
r1780 2572 2573 21.9198
r1781 2568 2573 27.1666
r1782 2568 2569 21.8032
r1783 2563 2566 9.0944
r1784 2563 2564 4.19742
r1785 2560 2564 20.9871
r1786 2560 2561 20.9871
r1787 2557 2558 4.19742
r1788 2556 2557 2.09871
r1789 2555 2561 4.19742
r1790 2555 2558 4.19742
r1791 2552 2553 8.39483
r1792 2551 2552 10.4935
r1793 2550 2551 2.09871
r1794 2549 2550 4.19742
r1795 2548 2556 2.09871
r1796 2548 2553 8.39483
r1797 2545 2549 4.19742
r1798 2545 2546 4.19742
r1799 2542 2546 8.39483
r1800 2542 2543 33.5793
r1801 2538 2543 4.19742
r1802 2538 2539 10.4935
r1803 2533 2534 13.9914
r1804 2532 2536 21.8032
r1805 2532 2534 27.1666
r1806 2530 2533 7.92845
r1807 2526 2527 0.932759
r1808 2525 2526 6.52931
r1809 2524 2527 3.26466
r1810 2521 2525 1.86552
r1811 2521 2522 8.39483
r1812 2514 2515 1.16595
r1813 2513 2514 0.932759
r1814 2512 2513 4.19742
r1815 2511 2515 2.09871
r1816 2508 2509 4.19742
r1817 2507 2512 4.19742
r1818 2507 2509 4.19742
r1819 2504 2505 11.6595
r1820 2503 2504 0.932759
r1821 2502 2503 4.19742
r1822 2501 2508 4.19742
r1823 2501 2505 16.7897
r1824 2497 2502 4.19742
r1825 2497 2498 8.39483
r1826 2492 2495 10.7267
r1827 2492 2493 2.3319
r1828 2489 2490 6.29612
r1829 2488 2489 6.52931
r1830 2487 2488 1.39914
r1831 2486 2487 4.66379
r1832 2485 2493 10.1438
r1833 2485 2490 14.3412
r1834 2481 2486 3.38125
r1835 2481 2482 9.21099
r1836 2479 2482 3.26466
r1837 2475 2477 9.32759
r1838 2471 2472 6.29612
r1839 2470 2471 6.52931
r1840 2469 2470 1.39914
r1841 2468 2469 4.66379
r1842 2467 2475 12.4757
r1843 2467 2472 14.3412
r1844 2464 2465 0.466379
r1845 2463 2468 3.38125
r1846 2463 2465 9.21099
r1847 2461 2464 2.79828
r1848 2458 2459 11.6595
r1849 2457 2458 1.39914
r1850 2454 2457 9.32759
r1851 2451 2452 6.29612
r1852 2450 2451 6.52931
r1853 2449 2450 1.39914
r1854 2448 2449 4.66379
r1855 2447 2454 12.4757
r1856 2447 2452 14.3412
r1857 2444 2448 3.38125
r1858 2444 2445 9.21099
r1859 2441 2445 3.26466
r1860 2433 2434 6.29612
r1861 2432 2433 6.52931
r1862 2431 2432 1.39914
r1863 2430 2431 4.66379
r1864 2429 2436 12.4757
r1865 2429 2434 14.3412
r1866 2425 2430 3.38125
r1867 2425 2426 9.21099
r1868 2423 2426 3.26466
r1869 2417 2418 6.52931
r1870 2416 2417 0.932759
r1871 2415 2420 8.39483
r1872 2415 2418 1.86552
r1873 2412 2416 3.26466
r1874 2412 2413 1.16595
r1875 2408 2409 6.06293
r1876 2407 2409 1.86552
r1877 2404 2405 17.4892
r1878 2403 2404 6.29612
r1879 2402 2408 4.66379
r1880 2402 2405 9.32759
r1881 2398 2399 4.66379
r1882 2397 2403 3.38125
r1883 2397 2399 4.5472
r1884 2394 2398 3.38125
r1885 2394 2395 9.21099
r1886 2389 2390 0.23319
r1887 2388 2392 10.4935
r1888 2388 2390 3.96423
r1889 2384 2385 6.06293
r1890 2383 2384 0.23319
r1891 2382 2389 8.74462
r1892 2382 2385 27.1666
r1893 2378 2379 0.23319
r1894 2377 2378 4.19742
r1895 2376 2377 0.23319
r1896 2375 2376 1.86552
r1897 2374 2383 3.96423
r1898 2374 2379 3.96423
r1899 2371 2372 7.69526
r1900 2370 2371 0.699569
r1901 2369 2370 10.4935
r1902 2368 2369 0.466379
r1903 2367 2368 1.63233
r1904 2366 2367 3.03147
r1905 2365 2366 1.16595
r1906 2364 2375 1.74892
r1907 2364 2372 8.74462
r1908 2360 2361 23.319
r1909 2359 2360 6.29612
r1910 2358 2365 4.5472
r1911 2358 2361 3.84763
r1912 2355 2356 4.4306
r1913 2354 2355 0.23319
r1914 2353 2359 3.96423
r1915 2353 2356 3.96423
r1916 2350 2354 3.61444
r1917 2350 2351 9.44419
r1918 2347 2348 12.5922
r1919 2343 2344 0.23319
r1920 2342 2343 6.06293
r1921 2341 2342 7.92845
r1922 2340 2341 4.66379
r1923 2339 2344 26.9334
r1924 2336 2340 3.38125
r1925 2331 2334 21.8032
r1926 2331 2332 27.1666
r1927 2329 2332 21.9198
r1928 2324 2325 2.09871
r1929 2323 2324 6.52931
r1930 2322 2327 8.39483
r1931 2322 2325 2.09871
r1932 2319 2323 1.86552
r1933 2319 2320 8.39483
r1934 2312 2313 2.09871
r1935 2311 2312 4.19742
r1936 2310 2313 2.09871
r1937 2307 2311 4.19742
r1938 2307 2308 4.19742
r1939 2304 2308 8.39483
r1940 2304 2305 33.5793
r1941 2301 2305 4.19742
r1942 2296 2299 12.7088
r1943 2296 2297 27.1666
r1944 2293 2294 4.66379
r1945 2292 2297 21.9198
r1946 2292 2294 17.256
r1947 2288 2289 11.6595
r1948 2287 2288 0.932759
r1949 2286 2293 17.1394
r1950 2286 2289 3.61444
r1951 2283 2284 14.691
r1952 2282 2283 4.4306
r1953 2281 2287 8.39483
r1954 2281 2284 2.09871
r1955 2277 2278 7.46207
r1956 2276 2277 10.7267
r1957 2275 2282 3.61444
r1958 2275 2278 9.44419
r1959 2272 2276 10.8433
r1960 2269 2270 10.0272
r1961 2268 2269 4.19742
r1962 2267 2272 12.2425
r1963 2267 2270 0.932759
r1964 2264 2265 1.86552
r1965 2263 2268 10.6101
r1966 2263 2265 8.04505
r1967 2260 2264 2.09871
r1968 2257 2260 12.5922
r1969 2257 2258 3.96423
r1970 2254 2258 21.2203
r1971 2254 2255 27.7496
r1972 2251 2255 10.0272
r1973 2251 2252 8.62802
r1974 2249 2252 3.96423
r1975 2246 2247 6.52931
r1976 2245 2246 35.678
r1977 2244 2245 22.6194
r1978 2240 2241 18.6552
r1979 2239 2244 21.8032
r1980 2239 2241 27.1666
r1981 2236 2237 4.66379
r1982 2235 2240 3.26466
r1983 2235 2237 17.256
r1984 2231 2232 11.6595
r1985 2230 2231 0.932759
r1986 2229 2236 17.1394
r1987 2229 2232 3.61444
r1988 2226 2227 14.691
r1989 2225 2226 4.4306
r1990 2224 2230 8.39483
r1991 2224 2227 2.09871
r1992 2220 2221 7.46207
r1993 2219 2220 10.7267
r1994 2218 2225 3.61444
r1995 2218 2221 9.44419
r1996 2215 2219 10.8433
r1997 2212 2213 10.0272
r1998 2211 2212 4.19742
r1999 2210 2215 12.2425
r2000 2210 2213 0.932759
r2001 2207 2208 1.86552
r2002 2206 2211 10.6101
r2003 2206 2208 8.04505
r2004 2203 2207 2.09871
r2005 2200 2203 12.5922
r2006 2200 2201 3.96423
r2007 2197 2201 21.2203
r2008 2197 2198 27.7496
r2009 2194 2198 10.0272
r2010 2194 2195 8.62802
r2011 2192 2195 3.96423
r2012 2180 2181 4.19742
r2013 2179 2180 8.39483
r2014 2178 2179 11.6595
r2015 2177 2178 0.932759
r2016 2176 2181 4.19742
r2017 2173 2174 8.39483
r2018 2172 2173 4.19742
r2019 2171 2177 8.39483
r2020 2171 2174 8.39483
r2021 2167 2168 6.29612
r2022 2166 2172 4.19742
r2023 2166 2168 4.19742
r2024 2164 2167 14.691
r2025 2162 2164 12.5922
r2026 2159 2160 14.4578
r2027 2158 2162 12.5922
r2028 2158 2160 52.4677
r2029 2154 2155 24.7181
r2030 2153 2154 18.6552
r2031 2152 2159 9.21099
r2032 2152 2155 2.44849
r2033 2150 2153 3.26466
r2034 2147 2148 11.6595
r2035 2146 2147 0.932759
r2036 2142 2143 4.19742
r2037 2141 2142 8.39483
r2038 2140 2141 11.6595
r2039 2139 2140 0.932759
r2040 2138 2146 8.39483
r2041 2138 2143 4.19742
r2042 2135 2136 8.39483
r2043 2134 2135 4.19742
r2044 2133 2139 8.39483
r2045 2133 2136 8.39483
r2046 2129 2130 6.29612
r2047 2128 2134 4.19742
r2048 2128 2130 4.19742
r2049 2126 2129 14.691
r2050 2124 2126 12.5922
r2051 2121 2122 14.4578
r2052 2120 2124 12.5922
r2053 2120 2122 52.4677
r2054 2116 2117 24.7181
r2055 2115 2116 18.6552
r2056 2114 2121 9.21099
r2057 2114 2117 2.44849
r2058 2112 2115 3.26466
r2059 2107 2498 3.03147
r2060 2107 2495 3.73104
r2061 2106 2301 11.4263
r2062 2106 2299 14.2246
r2063 2105 2628 0.932759
r2064 2104 2479 0.932759
r2065 2104 2477 16.3233
r2066 2103 2625 8.39483
r2067 2103 2617 0.932759
r2068 2102 2461 0.932759
r2069 2102 2459 3.26466
r2070 2101 2614 9.79397
r2071 2101 2605 0.932759
r2072 2100 2441 0.932759
r2073 2100 2439 16.3233
r2074 2099 2603 8.39483
r2075 2099 2595 0.932759
r2076 2098 2439 8.39483
r2077 2098 2436 0.932759
r2078 2097 2423 0.932759
r2079 2096 2249 0.23319
r2080 2096 2247 1.86552
r2081 2095 2150 0.932759
r2082 2095 2148 142.479
r2083 2094 2592 26.9334
r2084 2094 2590 3.03147
r2085 2093 2097 13.525
r2086 2093 2420 3.03147
r2087 2092 2585 16.5565
r2088 2092 2579 0.932759
r2089 2091 2413 23.7854
r2090 2091 2407 0.932759
r2091 2090 2395 5.13017
r2092 2090 2392 0.932759
r2093 2089 2577 16.3233
r2094 2089 2572 0.932759
r2095 2088 2569 5.13017
r2096 2088 2566 2.3319
r2097 2087 2351 2.3319
r2098 2087 2348 5.13017
r2099 2086 2347 8.39483
r2100 2086 2339 0.816164
r2101 2085 2336 0.816164
r2102 2085 2334 16.3233
r2103 2084 2539 0.932759
r2104 2084 2536 5.13017
r2105 2083 2192 0.23319
r2106 2082 2112 0.932759
r2107 2081 2530 0.932759
r2108 2081 2524 24.9513
r2109 2080 2329 0.932759
r2110 2080 2327 16.5565
r2111 2079 2522 3.03147
r2112 2078 2320 3.03147
r2113 1413 1539 0.185185
r2114 1413 1414 23.8708
r2115 1407 1538 0.314815
r2116 1407 1536 0.314815
r2117 1407 1411 15.9139
r2118 1403 1537 0.314815
r2119 1403 1535 0.314815
r2120 1403 1404 15.9139
r2121 1401 2307 23.8924
r2122 1401 1404 31.5331
r2123 1394 1534 0.185185
r2124 1394 1395 23.8708
r2125 1388 1533 0.277778
r2126 1388 1392 15.9139
r2127 1384 1532 0.277778
r2128 1384 1385 15.9139
r2129 1382 2301 23.8924
r2130 1382 1385 31.5331
r2131 1375 2628 96.0901
r2132 1375 1376 12.2844
r2133 1372 1531 0.277778
r2134 1372 1376 14.7412
r2135 1367 2492 96.0901
r2136 1367 1368 12.2844
r2137 1364 1530 0.277778
r2138 1364 1368 14.7412
r2139 1360 1529 0.277778
r2140 1360 1361 15.9139
r2141 1358 2485 90.5416
r2142 1358 1361 13.2616
r2143 1352 1528 0.277778
r2144 1352 1353 15.9139
r2145 1350 2296 90.5416
r2146 1350 1353 13.2616
r2147 1343 2624 90.5416
r2148 1343 1344 13.2616
r2149 1340 1527 0.277778
r2150 1340 1344 15.9139
r2151 1335 2481 90.5416
r2152 1335 1336 13.2616
r2153 1332 1526 0.277778
r2154 1332 1336 15.9139
r2155 1328 1525 0.277778
r2156 1328 1329 14.7412
r2157 1326 2479 96.0901
r2158 1326 1329 12.2844
r2159 1320 1524 0.277778
r2160 1320 1321 14.7412
r2161 1318 2292 96.0901
r2162 1318 1321 12.2844
r2163 1311 2617 96.0901
r2164 1311 1312 12.2844
r2165 1308 1522 0.277778
r2166 1308 1312 14.7412
r2167 1303 2475 96.0901
r2168 1303 1304 12.2844
r2169 1300 1521 0.277778
r2170 1300 1304 14.7412
r2171 1296 1523 0.185185
r2172 1296 1297 23.8708
r2173 1294 2176 96.0901
r2174 1294 1297 13.2616
r2175 1288 1520 0.277778
r2176 1288 1289 15.9139
r2177 1286 2467 90.5416
r2178 1286 1289 13.2616
r2179 1280 1519 0.277778
r2180 1280 1281 15.9139
r2181 1278 2286 90.5416
r2182 1278 1281 13.2616
r2183 1271 2281 96.0901
r2184 1271 1272 13.2616
r2185 1267 1518 0.185185
r2186 1267 1272 23.8708
r2187 1262 1517 0.185185
r2188 1262 1263 23.8708
r2189 1260 2171 96.0901
r2190 1260 1263 13.2616
r2191 1253 2613 90.5416
r2192 1253 1254 13.2616
r2193 1250 1516 0.277778
r2194 1250 1254 15.9139
r2195 1245 2463 90.5416
r2196 1245 1246 13.2616
r2197 1242 1515 0.277778
r2198 1242 1246 15.9139
r2199 1240 2275 15.2057
r2200 1235 1512 0.277778
r2201 1235 1238 15.9139
r2202 1230 1511 0.277778
r2203 1230 1231 15.9139
r2204 1228 2166 96.0901
r2205 1228 1231 13.2616
r2206 1222 1514 0.277778
r2207 1222 1223 14.7412
r2208 1220 2461 96.0901
r2209 1220 1223 12.2844
r2210 1214 1513 0.277778
r2211 1214 1215 14.7412
r2212 1212 1215 7.91659
r2213 1208 2605 96.0901
r2214 1208 1209 12.2844
r2215 1205 1509 0.277778
r2216 1205 1209 14.7412
r2217 1200 2454 96.0901
r2218 1200 1201 12.2844
r2219 1197 1508 0.277778
r2220 1197 1201 14.7412
r2221 1193 1510 0.314815
r2222 1193 1507 0.314815
r2223 1193 1194 15.9139
r2224 1191 2164 96.0901
r2225 1191 1194 13.2616
r2226 1185 1506 0.277778
r2227 1185 1186 15.9139
r2228 1183 2447 90.5416
r2229 1183 1186 13.2616
r2230 1177 1505 0.277778
r2231 1177 1178 15.9139
r2232 1175 2272 81.03
r2233 1175 1178 13.2616
r2234 1168 2267 96.0901
r2235 1168 1169 13.2616
r2236 1165 1504 0.277778
r2237 1165 1169 15.9139
r2238 1161 1503 0.277778
r2239 1161 1162 15.9139
r2240 1159 2158 96.0901
r2241 1159 1162 13.2616
r2242 1152 2602 90.5416
r2243 1152 1153 13.2616
r2244 1149 1502 0.277778
r2245 1149 1153 15.9139
r2246 1144 2444 90.5416
r2247 1144 1145 13.2616
r2248 1141 1501 0.277778
r2249 1141 1145 15.9139
r2250 1136 2263 90.5416
r2251 1136 1137 13.2616
r2252 1133 1500 0.277778
r2253 1133 1137 15.9139
r2254 1129 1499 0.277778
r2255 1129 1130 14.7412
r2256 1127 2441 96.0901
r2257 1127 1130 12.2844
r2258 1121 1498 0.277778
r2259 1121 1122 14.7412
r2260 1119 2260 96.0901
r2261 1119 1122 12.2844
r2262 1112 2257 96.0901
r2263 1112 1113 13.2616
r2264 1109 1497 0.314815
r2265 1109 1496 0.314815
r2266 1109 1113 15.9139
r2267 1104 2595 96.0901
r2268 1104 1105 12.2844
r2269 1101 1495 0.277778
r2270 1101 1105 14.7412
r2271 1096 2436 96.0901
r2272 1096 1097 12.2844
r2273 1093 1494 0.277778
r2274 1093 1097 14.7412
r2275 1089 1492 0.277778
r2276 1089 1090 15.9139
r2277 1087 2429 90.5416
r2278 1087 1090 13.2616
r2279 1081 1491 0.277778
r2280 1081 1082 15.9139
r2281 1075 1493 0.277778
r2282 1075 1079 15.9139
r2283 1071 1490 0.277778
r2284 1071 1072 15.9139
r2285 1069 2152 90.5416
r2286 1069 1072 13.2616
r2287 1062 2592 90.5416
r2288 1062 1063 13.2616
r2289 1059 1489 0.277778
r2290 1059 1063 15.9139
r2291 1054 2425 90.5416
r2292 1054 1055 13.2616
r2293 1051 1488 0.277778
r2294 1051 1055 15.9139
r2295 1047 1487 0.277778
r2296 1047 1048 14.7412
r2297 1045 2423 96.0901
r2298 1045 1048 12.2844
r2299 1039 1486 0.277778
r2300 1039 1040 14.7412
r2301 1037 2249 96.0901
r2302 1037 1040 12.2844
r2303 1031 1485 0.277778
r2304 1031 1032 14.7412
r2305 1029 2150 96.0901
r2306 1029 1032 12.2844
r2307 1022 2584 96.0901
r2308 1022 1023 13.2616
r2309 1018 1484 0.185185
r2310 1018 1023 23.8708
r2311 1013 1483 0.185185
r2312 1013 1014 23.8708
r2313 1011 2415 96.0901
r2314 1011 1014 13.2616
r2315 1004 2579 96.0901
r2316 1004 1005 12.2844
r2317 1001 1482 0.277778
r2318 1001 1005 14.7412
r2319 997 1481 0.277778
r2320 997 998 14.7412
r2321 995 2407 96.0901
r2322 995 998 12.2844
r2323 988 2402 96.0901
r2324 988 989 12.2844
r2325 985 1480 0.277778
r2326 985 989 14.7412
r2327 981 1479 0.277778
r2328 981 982 15.9139
r2329 979 2239 90.5416
r2330 979 982 13.2616
r2331 972 2576 90.5416
r2332 972 973 13.2616
r2333 969 1478 0.277778
r2334 969 973 15.9139
r2335 965 1477 0.277778
r2336 965 966 15.9139
r2337 963 2397 90.5416
r2338 963 966 13.2616
r2339 956 957 11.1987
r2340 955 2394 90.5416
r2341 955 957 2.06291
r2342 952 1476 0.277778
r2343 952 956 15.9139
r2344 948 1475 0.277778
r2345 948 949 14.7412
r2346 946 2235 96.0901
r2347 946 949 12.2844
r2348 939 2572 96.0901
r2349 939 940 12.2844
r2350 936 1474 0.277778
r2351 936 940 14.7412
r2352 932 1473 0.277778
r2353 932 933 15.9139
r2354 930 2388 23.8924
r2355 930 933 31.5331
r2356 923 924 10.3735
r2357 922 2382 81.03
r2358 922 924 1.9109
r2359 919 1471 0.277778
r2360 919 923 14.7412
r2361 915 1472 0.185185
r2362 915 916 23.8708
r2363 913 2138 96.0901
r2364 913 916 13.2616
r2365 907 1470 0.277778
r2366 907 908 15.9139
r2367 905 2229 90.5416
r2368 905 908 13.2616
r2369 898 2568 90.5416
r2370 898 899 13.2616
r2371 895 1469 0.277778
r2372 895 899 15.9139
r2373 891 1468 0.314815
r2374 891 1465 0.314815
r2375 891 892 15.9139
r2376 889 2374 23.8924
r2377 889 892 31.5331
r2378 882 2224 96.0901
r2379 882 883 13.2616
r2380 878 1467 0.185185
r2381 878 883 23.8708
r2382 873 1466 0.185185
r2383 873 874 23.8708
r2384 871 2133 96.0901
r2385 871 874 13.2616
r2386 864 865 11.1987
r2387 863 2364 81.03
r2388 863 865 2.06291
r2389 860 1464 0.277778
r2390 860 864 15.9139
r2391 858 2218 15.2057
r2392 853 1462 0.277778
r2393 853 856 15.9139
r2394 848 1461 0.277778
r2395 848 849 15.9139
r2396 846 2128 96.0901
r2397 846 849 13.2616
r2398 840 1463 0.277778
r2399 840 841 14.7412
r2400 838 841 7.91659
r2401 834 2563 23.8924
r2402 834 835 31.5331
r2403 831 1460 0.277778
r2404 831 835 15.9139
r2405 827 1459 0.314815
r2406 827 1457 0.314815
r2407 827 828 15.9139
r2408 824 2358 15.2057
r2409 819 1456 0.277778
r2410 819 821 14.7412
r2411 817 821 7.91659
r2412 814 1458 0.314815
r2413 814 1455 0.314815
r2414 814 815 15.9139
r2415 812 2126 96.0901
r2416 812 815 13.2616
r2417 806 1454 0.277778
r2418 806 807 15.9139
r2419 804 2215 81.03
r2420 804 807 13.2616
r2421 797 2210 96.0901
r2422 797 798 13.2616
r2423 794 1453 0.277778
r2424 794 798 15.9139
r2425 790 1452 0.277778
r2426 790 791 15.9139
r2427 788 2120 96.0901
r2428 788 791 13.2616
r2429 781 2555 23.8924
r2430 781 782 31.5331
r2431 778 1451 0.314815
r2432 778 1450 0.314815
r2433 778 782 15.9139
r2434 774 1449 0.277778
r2435 774 775 15.9139
r2436 768 1448 0.277778
r2437 768 771 15.9139
r2438 763 2206 90.5416
r2439 763 764 13.2616
r2440 760 1447 0.277778
r2441 760 764 15.9139
r2442 756 1446 0.277778
r2443 756 757 14.7412
r2444 754 2203 96.0901
r2445 754 757 12.2844
r2446 747 2200 96.0901
r2447 747 748 13.2616
r2448 744 1445 0.314815
r2449 744 1444 0.314815
r2450 744 748 15.9139
r2451 739 2545 23.8924
r2452 739 740 31.5331
r2453 736 1443 0.314815
r2454 736 1442 0.314815
r2455 736 740 15.9139
r2456 732 1441 0.277778
r2457 732 733 15.9139
r2458 729 2339 17.8421
r2459 724 1440 0.277778
r2460 724 726 14.7412
r2461 722 726 7.91659
r2462 719 1438 0.277778
r2463 719 720 15.9139
r2464 713 1439 0.277778
r2465 713 717 15.9139
r2466 709 1437 0.277778
r2467 709 710 15.9139
r2468 707 2114 90.5416
r2469 707 710 13.2616
r2470 700 2538 23.8924
r2471 700 701 31.5331
r2472 697 1436 0.277778
r2473 697 701 15.9139
r2474 695 2336 17.8421
r2475 690 1434 0.277778
r2476 690 693 15.9139
r2477 685 1435 0.277778
r2478 685 686 14.7412
r2479 683 686 7.91659
r2480 680 1433 0.277778
r2481 680 681 14.7412
r2482 678 2192 96.0901
r2483 678 681 12.2844
r2484 672 1432 0.277778
r2485 672 673 14.7412
r2486 670 2112 96.0901
r2487 670 673 12.2844
r2488 663 2532 90.5416
r2489 663 664 13.2616
r2490 660 1431 0.277778
r2491 660 664 15.9139
r2492 656 1430 0.277778
r2493 656 657 15.9139
r2494 654 2331 90.5416
r2495 654 657 13.2616
r2496 647 2530 96.0901
r2497 647 648 12.2844
r2498 644 1429 0.277778
r2499 644 648 14.7412
r2500 640 1428 0.277778
r2501 640 641 14.7412
r2502 638 2329 96.0901
r2503 638 641 12.2844
r2504 631 2521 96.0901
r2505 631 632 13.2616
r2506 628 1427 0.185185
r2507 628 632 23.8708
r2508 624 1426 0.185185
r2509 624 625 23.8708
r2510 622 2319 96.0901
r2511 622 625 13.2616
r2512 616 617 51.2835
r2513 615 616 74.5942
r2514 614 615 51.2835
r2515 613 614 74.5942
r2516 612 613 51.2835
r2517 611 612 74.5942
r2518 610 611 51.2835
r2519 608 2624 9.30293
r2520 608 610 31.4694
r2521 604 605 51.2835
r2522 603 604 74.5942
r2523 602 603 51.2835
r2524 601 602 74.5942
r2525 600 601 51.2835
r2526 599 600 74.5942
r2527 598 599 51.2835
r2528 593 594 51.2835
r2529 592 593 74.5942
r2530 591 592 51.2835
r2531 590 591 74.5942
r2532 589 590 51.2835
r2533 588 589 74.5942
r2534 587 588 51.2835
r2535 586 2605 9.31139
r2536 586 594 30.3039
r2537 582 583 51.2835
r2538 581 582 74.5942
r2539 580 581 51.2835
r2540 579 580 74.5942
r2541 578 579 51.2835
r2542 577 578 74.5942
r2543 576 577 51.2835
r2544 574 2592 9.30293
r2545 574 576 31.4694
r2546 570 571 55.9457
r2547 566 567 51.2835
r2548 565 566 74.5942
r2549 564 565 51.2835
r2550 563 564 74.5942
r2551 562 563 51.2835
r2552 561 562 74.5942
r2553 560 561 51.2835
r2554 559 2579 9.48069
r2555 559 567 30.3039
r2556 555 556 51.2835
r2557 554 555 72.2631
r2558 553 554 55.9457
r2559 552 553 72.2631
r2560 551 552 51.2835
r2561 550 551 74.5942
r2562 549 550 51.2835
r2563 547 2568 9.30293
r2564 547 549 31.4694
r2565 543 544 51.2835
r2566 542 543 74.5942
r2567 539 540 74.5942
r2568 538 539 51.2835
r2569 537 2560 9.65625
r2570 537 542 88.5806
r2571 537 540 88.5806
r2572 534 535 51.2835
r2573 531 532 51.2835
r2574 530 2548 9.65625
r2575 530 534 37.2971
r2576 530 532 289.053
r2577 527 528 51.2835
r2578 524 525 177.161
r2579 523 524 74.5942
r2580 522 523 51.2835
r2581 521 2542 9.65625
r2582 521 527 37.2971
r2583 521 525 37.2971
r2584 519 2538 9.48069
r2585 519 700 0.294702
r2586 519 522 37.2971
r2587 516 517 51.2835
r2588 515 516 74.5942
r2589 514 515 51.2835
r2590 513 514 74.5942
r2591 512 513 51.2835
r2592 511 512 74.5942
r2593 510 511 51.2835
r2594 506 507 55.9457
r2595 505 2524 9.65625
r2596 505 507 34.966
r2597 499 500 2.33107
r2598 498 499 51.2835
r2599 497 498 2.33107
r2600 496 2511 28.9688
r2601 496 500 34.966
r2602 493 494 51.2835
r2603 490 491 177.161
r2604 489 490 72.2631
r2605 488 489 2.33107
r2606 487 488 51.2835
r2607 486 487 2.33107
r2608 485 2501 9.65625
r2609 485 493 37.2971
r2610 485 491 37.2971
r2611 480 481 51.2835
r2612 477 478 51.2835
r2613 476 477 74.5942
r2614 475 476 51.2835
r2615 474 475 74.5942
r2616 473 474 51.2835
r2617 471 2481 9.13681
r2618 471 473 31.4694
r2619 468 469 51.2835
r2620 464 465 51.2835
r2621 460 461 51.2835
r2622 459 460 74.5942
r2623 458 459 51.2835
r2624 457 458 74.5942
r2625 456 457 51.2835
r2626 455 2467 9.13681
r2627 455 461 31.4694
r2628 452 453 51.2835
r2629 447 448 51.2835
r2630 446 2454 9.48069
r2631 446 448 30.3039
r2632 443 444 51.2835
r2633 442 443 74.5942
r2634 441 442 51.2835
r2635 440 441 74.5942
r2636 439 440 51.2835
r2637 436 437 51.2835
r2638 434 2441 9.48069
r2639 434 436 30.3039
r2640 430 431 51.2835
r2641 427 428 51.2835
r2642 426 427 74.5942
r2643 425 426 51.2835
r2644 424 425 74.5942
r2645 423 424 51.2835
r2646 421 2425 9.13681
r2647 421 423 31.4694
r2648 418 419 51.2835
r2649 414 415 55.9457
r2650 412 2412 9.65625
r2651 412 414 34.966
r2652 409 410 51.2835
r2653 406 407 51.2835
r2654 405 406 74.5942
r2655 404 405 51.2835
r2656 403 404 74.5942
r2657 402 403 51.2835
r2658 400 2397 9.13681
r2659 400 402 31.4694
r2660 397 398 51.2835
r2661 393 394 51.2835
r2662 389 390 51.2835
r2663 388 389 74.5942
r2664 387 388 51.2835
r2665 386 387 74.5942
r2666 385 386 51.2835
r2667 384 2382 8.63349
r2668 384 390 33.8005
r2669 381 382 51.2835
r2670 380 2374 9.14803
r2671 380 889 0.294702
r2672 380 385 37.2971
r2673 380 382 37.2971
r2674 377 378 51.2835
r2675 372 373 51.2835
r2676 371 372 74.5942
r2677 370 371 51.2835
r2678 369 370 74.5942
r2679 368 369 51.2835
r2680 367 2358 8.63349
r2681 367 373 33.8005
r2682 364 365 51.2835
r2683 363 2353 9.14803
r2684 363 368 37.2971
r2685 363 365 37.2971
r2686 358 359 51.2835
r2687 357 358 74.5942
r2688 356 357 51.2835
r2689 355 356 72.2631
r2690 354 355 2.33107
r2691 353 354 51.2835
r2692 352 353 2.33107
r2693 351 352 72.2631
r2694 350 351 51.2835
r2695 348 2336 8.97652
r2696 348 350 31.4694
r2697 343 344 51.2835
r2698 342 343 74.5942
r2699 341 342 51.2835
r2700 340 341 74.5942
r2701 339 340 51.2835
r2702 338 339 74.5942
r2703 337 338 51.2835
r2704 333 334 55.9457
r2705 332 2322 9.65625
r2706 332 334 34.966
r2707 326 327 51.2835
r2708 325 2310 28.9688
r2709 325 327 37.2971
r2710 322 323 51.2835
r2711 319 320 177.161
r2712 318 319 74.5942
r2713 317 318 51.2835
r2714 316 2304 9.65625
r2715 316 322 37.2971
r2716 316 320 37.2971
r2717 311 312 51.2835
r2718 310 311 74.5942
r2719 309 310 51.2835
r2720 308 309 74.5942
r2721 307 308 51.2835
r2722 306 307 74.5942
r2723 305 306 51.2835
r2724 300 301 51.2835
r2725 299 300 72.2631
r2726 298 299 2.33107
r2727 297 298 51.2835
r2728 296 297 2.33107
r2729 295 2286 9.30293
r2730 295 301 31.4694
r2731 292 293 51.2835
r2732 291 292 74.5942
r2733 290 291 51.2835
r2734 288 2275 8.63349
r2735 288 290 33.8005
r2736 284 285 51.2835
r2737 283 284 74.5942
r2738 282 283 51.2835
r2739 281 282 74.5942
r2740 280 281 51.2835
r2741 276 277 51.2835
r2742 275 2272 8.63349
r2743 275 277 33.8005
r2744 272 273 51.2835
r2745 271 272 74.5942
r2746 270 271 51.2835
r2747 267 268 51.2835
r2748 265 2260 9.48069
r2749 265 267 37.2971
r2750 262 263 51.2835
r2751 259 260 51.2835
r2752 258 259 74.5942
r2753 257 258 51.2835
r2754 254 255 51.2835
r2755 253 254 74.5942
r2756 252 253 51.2835