* File: neuron.pex.netlist.pex
* Created: Sat Nov 29 15:43:34 2025
* Program "Calibre xACT"
* Version "v2024.4_39.16"
* Nominal Temperature: 25C
* Circuit Temperature: 27C
* 
.subckt PM_NEURON_VDD 1 3 6 9 14 17 19 23 27 30 31 33 34 35 36 38 41 47 48 52 53
+ 56 60 61 64 65 67 69 72 73 75 76 78 79 80 81 83 86 112 140 179 304 348 562 580
+ 588 597 609 617 635 643 649 653 670 678 682 690 702 706 723 731 740 752 757
+ 775 792 800 812 818 830 838 863 871 883 887 895 904 912 916 924 934 940 944
+ 952 960 966 978 988 996 1013 1025 1036 1044 1045 1056 1066 1074 1091 1099 1103
+ 1109 1114 1122 1123 1126 1142 1154 1162 1174 1181 1185 1202 1214 1227 1239
+ 1252 1256 1273 1281 1285 1298 1306 1310 1318 1345 1346 1352 1353 1354 1355
+ 1356 1357 1358 1359 1360 1361 1362 1363 1364 1365 1366 1367 1368 1369 1370
+ 1371 1372 1373 1374 1375 1376 1377 1378 1379 1380 1381 1382 1383 1384 1385
+ 1386 1387 1388 1389 1390 1391 1392 1393 1394 1395 1396 1397 1398 1399 1400
+ 1401 1402 1403 1404 1405 1406 1407 1408 1409 1410 1411 1412 1413 1414 1415
+ 1416 1417 1418 1419 1420 1421 1422 1423 1424 1425 1426 1427 1428 1429 1430
+ 1431 1432 1433 1434 1435 1436 1437 1438 1439 1440 1441 1442 1443 1444 1445
+ 1446 1447 1448 1449 1450 1451 1452 1453 1454 1455 1456 1457 1781 1783 1784
+ 1817 1848 1975 1976 1977 1978 1979 1980 1981 1982 1983 1984 1985 1986 1987
+ 1988 1989 1990 1991 1992 1993 1994 1995 1996 1997 2033 2076 2113 2124 2243
+ 2335 2386 2411 2460 2507 2525 2532 2538 2615
c1753 2615 0 5.36169e-19
c1754 2538 0 6.71444e-19
c1755 2532 0 6.09179e-19
c1756 2525 0 0.00374215f
c1757 2507 0 7.59302e-19
c1758 2460 0 6.05538e-19
c1759 2411 0 0.0360401f
c1760 2386 0 0.011378f
c1761 2335 0 0.0187609f
c1762 2243 0 0.00145621f
c1763 2124 0 0.00269025f
c1764 2113 0 4.96651e-19
c1765 2076 0 0.00148208f
c1766 2033 0 5.2474e-19
c1767 1997 0 0.00937961f
c1768 1990 0 0.00160482f
c1769 1982 0 0.00270469f
c1770 1456 0 0.00146956f
c1771 1450 0 0.00144694f
c1772 1449 0 0.00154176f
c1773 1447 0 0.0373659f
c1774 1446 0 0.0372762f
c1775 1444 0 0.0373581f
c1776 1443 0 0.037345f
c1777 1441 0 0.00146933f
c1778 1440 0 0.00147441f
c1779 1439 0 0.0373809f
c1780 1438 0 0.0374307f
c1781 1433 0 0.0014439f
c1782 1432 0 0.0014439f
c1783 1425 0 0.00154176f
c1784 1424 0 0.0015415f
c1785 1423 0 0.0372762f
c1786 1422 0 0.0374296f
c1787 1421 0 0.0374296f
c1788 1420 0 0.0372762f
c1789 1419 0 0.037345f
c1790 1418 0 0.0373567f
c1791 1417 0 0.0373533f
c1792 1416 0 0.037345f
c1793 1413 0 0.00148733f
c1794 1412 0 0.00146396f
c1795 1411 0 0.0374068f
c1796 1410 0 0.0374063f
c1797 1409 0 0.0373511f
c1798 1408 0 0.0373538f
c1799 1404 0 0.00147367f
c1800 1401 0 0.00143107f
c1801 1400 0 0.00143107f
c1802 1396 0 0.00155271f
c1803 1393 0 0.0375077f
c1804 1392 0 0.0372762f
c1805 1391 0 0.00144648f
c1806 1390 0 0.00148691f
c1807 1388 0 0.0373871f
c1808 1387 0 0.037345f
c1809 1385 0 0.00150507f
c1810 1383 0 0.0374394f
c1811 1382 0 0.0373538f
c1812 1381 0 0.00145265f
c1813 1380 0 0.00146912f
c1814 1377 0 0.037353f
c1815 1375 0 0.00150755f
c1816 1374 0 0.00144732f
c1817 1371 0 0.00146332f
c1818 1370 0 0.0373853f
c1819 1366 0 0.00152758f
c1820 1365 0 0.0375077f
c1821 1364 0 0.0372762f
c1822 1361 0 0.00143107f
c1823 1360 0 0.00147458f
c1824 1359 0 0.0375508f
c1825 1358 0 0.037345f
c1826 1356 0 0.00150282f
c1827 1355 0 0.0373968f
c1828 1354 0 0.0372612f
c1829 1353 0 0.0375717f
c1830 1352 0 0.0375491f
c1831 1345 0 0.00125877f
c1832 1318 0 0.00252069f
c1833 1310 0 0.00169946f
c1834 1306 0 0.0375498f
c1835 1298 0 0.0373427f
c1836 1285 0 0.00234887f
c1837 1281 0 0.00156892f
c1838 1273 0 0.00216915f
c1839 1256 0 0.00216617f
c1840 1252 0 0.00154948f
c1841 1239 0 0.00287406f
c1842 1227 0 0.0373666f
c1843 1214 0 0.00143807f
c1844 1202 0 0.00209094f
c1845 1185 0 0.00205503f
c1846 1181 0 0.00168128f
c1847 1174 0 0.00231393f
c1848 1162 0 0.0380383f
c1849 1154 0 0.00141932f
c1850 1142 0 0.00247918f
c1851 1126 0 0.00186747f
c1852 1123 0 7.30109e-19
c1853 1122 0 0.00140289f
c1854 1114 0 0.00249971f
c1855 1109 0 0.00149652f
c1856 1103 0 0.00333157f
c1857 1099 0 0.00156926f
c1858 1091 0 0.00219254f
c1859 1074 0 0.00215795f
c1860 1066 0 0.00287598f
c1861 1056 0 0.00512018f
c1862 1045 0 6.91792e-19
c1863 1044 0 0.00139905f
c1864 1036 0 0.00179495f
c1865 1025 0 0.00294953f
c1866 1013 0 0.00209235f
c1867 996 0 0.00188812f
c1868 988 0 0.00176491f
c1869 978 0 0.00332956f
c1870 966 0 0.0374646f
c1871 960 0 0.0420838f
c1872 952 0 0.00256021f
c1873 944 0 0.00186851f
c1874 940 0 0.00140199f
c1875 934 0 0.00579289f
c1876 924 0 0.00174042f
c1877 916 0 0.00281802f
c1878 912 0 0.00156892f
c1879 904 0 0.00216805f
c1880 895 0 0.0403369f
c1881 887 0 0.00226046f
c1882 883 0 0.0014581f
c1883 871 0 6.14294e-19
c1884 863 0 0.00289886f
c1885 838 0 0.00264624f
c1886 830 0 0.00163726f
c1887 818 0 0.00208885f
c1888 812 0 0.037684f
c1889 800 0 0.00208135f
c1890 792 0 0.00198494f
c1891 775 0 6.9032e-19
c1892 757 0 0.00267344f
c1893 752 0 0.00145265f
c1894 740 0 0.00253498f
c1895 731 0 0.00265884f
c1896 723 0 0.00184688f
c1897 706 0 0.00226493f
c1898 702 0 0.00144648f
c1899 690 0 0.00207018f
c1900 682 0 0.00291897f
c1901 678 0 0.00156892f
c1902 670 0 0.00216345f
c1903 653 0 0.00215795f
c1904 649 0 0.00140304f
c1905 643 0 0.00317842f
c1906 635 0 0.00288358f
c1907 617 0 0.00444651f
c1908 609 0 0.00157247f
c1909 597 0 0.00230145f
c1910 588 0 0.00209079f
c1911 580 0 0.0018985f
c1912 562 0 0.00347611f
c1913 348 0 0.105909f
c1914 304 0 0.142537f
c1915 179 0 0.0479302f
c1916 140 0 0.0011567f
c1917 112 0 0.00286509f
c1918 96 0 1.72115e-19
c1919 95 0 1.71101e-19
c1920 94 0 1.72115e-19
c1921 93 0 1.72115e-19
c1922 92 0 1.71101e-19
c1923 91 0 1.71101e-19
c1924 90 0 1.72115e-19
c1925 89 0 1.71101e-19
c1926 88 0 1.72115e-19
c1927 87 0 1.71101e-19
c1928 86 0 0.0555224f
c1929 83 0 0.00251094f
c1930 81 0 9.30229e-19
c1931 80 0 0.00199725f
c1932 79 0 0.063556f
c1933 78 0 7.01718e-19
c1934 76 0 0.00287598f
c1935 75 0 0.0015688f
c1936 73 0 0.00179495f
c1937 72 0 0.0029268f
c1938 69 0 0.00172194f
c1939 67 0 0.188815f
c1940 65 0 0.149409f
c1941 64 0 0.0622409f
c1942 61 0 9.30444e-19
c1943 60 0 0.00216612f
c1944 56 0 0.00287598f
c1945 53 0 0.00179495f
c1946 52 0 0.00208619f
c1947 48 0 0.00179727f
c1948 47 0 0.0086699f
c1949 41 0 0.00101704f
c1950 38 0 8.14419e-19
c1951 36 0 0.173021f
c1952 35 0 0.126466f
c1953 34 0 0.0021575f
c1954 33 0 0.0439129f
c1955 31 0 0.00179495f
c1956 30 0 0.0027832f
c1957 27 0 0.00172478f
c1958 23 0 8.69098e-19
c1959 19 0 0.00115164f
c1960 17 0 0.0534959f
c1961 14 0 9.20821e-19
c1962 9 0 0.00287598f
c1963 6 0 0.00179495f
c1964 3 0 0.00188126f
c1965 1 0 0.00239981f
r1966 2612 2613 6.7625
r1967 2608 2609 6.52931
r1968 2607 2608 0.932759
r1969 2606 2607 11.6595
r1970 2605 2606 1.86552
r1971 2604 2612 1.63233
r1972 2604 2609 1.86552
r1973 2601 2602 4.66379
r1974 2597 2598 0.23319
r1975 2596 2597 4.19742
r1976 2595 2596 0.23319
r1977 2594 2595 1.86552
r1978 2593 2601 3.96423
r1979 2593 2598 3.96423
r1980 2590 2591 4.66379
r1981 2589 2594 2.44849
r1982 2589 2591 3.61444
r1983 2586 2587 4.4306
r1984 2585 2586 0.23319
r1985 2584 2585 2.56509
r1986 2583 2590 3.96423
r1987 2583 2587 3.96423
r1988 2581 2584 1.39914
r1989 2578 2579 2.09871
r1990 2577 2581 12.5922
r1991 2577 2579 8.39483
r1992 2574 2575 2.3319
r1993 2573 2578 1.74892
r1994 2573 2575 6.41272
r1995 2567 2568 1.16595
r1996 2566 2567 0.466379
r1997 2565 2566 4.19742
r1998 2564 2565 2.09871
r1999 2563 2571 9.32759
r2000 2563 2568 2.09871
r2001 2560 2561 9.32759
r2002 2559 2564 2.3319
r2003 2559 2561 1.63233
r2004 2556 2557 4.66379
r2005 2555 2560 1.16595
r2006 2555 2557 3.96423
r2007 2552 2553 1.16595
r2008 2551 2556 4.4306
r2009 2551 2553 2.3319
r2010 2548 2549 6.52931
r2011 2547 2548 1.86552
r2012 2546 2547 0.932759
r2013 2545 2546 9.79397
r2014 2544 2552 8.97781
r2015 2544 2549 1.74892
r2016 2541 2615 0.777784
r2017 2539 2540 3.49785
r2018 2538 2539 0.699569
r2019 2537 2540 18.8884
r2020 2536 2615 0.202133
r2021 2536 2538 4.19742
r2022 2532 2537 1.02627
r2023 2532 2534 10.4935
r2024 2526 2527 5.82974
r2025 2525 2527 15.0407
r2026 2522 2523 6.06293
r2027 2521 2522 4.66379
r2028 2520 2521 4.89698
r2029 2519 2520 3.03147
r2030 2518 2519 4.66379
r2031 2517 2518 7.92845
r2032 2516 2517 4.66379
r2033 2515 2526 3.49785
r2034 2515 2523 23.5522
r2035 2512 2513 4.66379
r2036 2511 2512 6.7625
r2037 2510 2511 1.16595
r2038 2509 2510 4.66379
r2039 2508 2509 1.16595
r2040 2507 2516 4.31401
r2041 2507 2513 3.61444
r2042 2503 2504 4.66379
r2043 2502 2503 3.26466
r2044 2501 2502 12.1259
r2045 2500 2508 2.3319
r2046 2500 2504 4.4306
r2047 2497 2498 2.09871
r2048 2496 2497 10.4935
r2049 2495 2496 11.4263
r2050 2494 2495 1.16595
r2051 2493 2501 0.699569
r2052 2493 2498 4.4306
r2053 2489 2490 9.32759
r2054 2488 2489 3.96423
r2055 2487 2488 1.16595
r2056 2486 2487 5.13017
r2057 2485 2494 8.97781
r2058 2485 2490 1.74892
r2059 2482 2483 1.16595
r2060 2481 2482 4.66379
r2061 2480 2486 3.73104
r2062 2480 2483 2.56509
r2063 2477 2478 9.32759
r2064 2476 2477 5.13017
r2065 2475 2481 4.66379
r2066 2475 2478 1.39914
r2067 2471 2472 5.82974
r2068 2470 2476 34.1623
r2069 2470 2472 15.0407
r2070 2467 2468 6.06293
r2071 2466 2467 4.66379
r2072 2465 2466 4.89698
r2073 2464 2465 3.03147
r2074 2463 2464 4.66379
r2075 2462 2463 7.92845
r2076 2461 2462 4.66379
r2077 2460 2471 3.49785
r2078 2460 2468 23.5522
r2079 2456 2457 4.66379
r2080 2455 2456 6.7625
r2081 2454 2455 1.16595
r2082 2453 2454 4.66379
r2083 2452 2453 1.16595
r2084 2451 2461 4.31401
r2085 2451 2457 3.61444
r2086 2448 2449 4.66379
r2087 2447 2448 3.26466
r2088 2446 2447 12.1259
r2089 2445 2452 2.3319
r2090 2445 2449 4.4306
r2091 2441 2442 2.09871
r2092 2440 2441 10.4935
r2093 2439 2440 11.4263
r2094 2438 2439 1.16595
r2095 2437 2446 0.699569
r2096 2437 2442 4.4306
r2097 2434 2435 9.32759
r2098 2433 2434 3.96423
r2099 2432 2433 1.16595
r2100 2431 2432 5.13017
r2101 2430 2438 8.97781
r2102 2430 2435 1.74892
r2103 2426 2427 1.16595
r2104 2425 2426 4.66379
r2105 2424 2431 3.73104
r2106 2424 2427 2.56509
r2107 2421 2425 4.66379
r2108 2421 2422 1.39914
r2109 2412 2413 5.82974
r2110 2411 2413 15.0407
r2111 2408 2409 6.06293
r2112 2407 2408 4.66379
r2113 2406 2407 4.89698
r2114 2405 2406 3.03147
r2115 2404 2405 4.66379
r2116 2403 2404 7.92845
r2117 2402 2403 4.66379
r2118 2401 2412 3.49785
r2119 2401 2409 23.5522
r2120 2397 2398 4.66379
r2121 2396 2397 6.7625
r2122 2395 2396 1.16595
r2123 2394 2395 4.66379
r2124 2393 2394 1.16595
r2125 2392 2402 4.31401
r2126 2392 2398 3.61444
r2127 2389 2390 4.66379
r2128 2388 2389 3.26466
r2129 2387 2388 12.1259
r2130 2386 2393 2.3319
r2131 2386 2390 4.4306
r2132 2382 2383 2.09871
r2133 2381 2382 10.4935
r2134 2380 2381 11.4263
r2135 2379 2380 1.16595
r2136 2378 2387 0.699569
r2137 2378 2383 4.4306
r2138 2375 2376 9.32759
r2139 2374 2379 8.97781
r2140 2374 2376 1.74892
r2141 2371 2372 1.16595
r2142 2370 2371 5.13017
r2143 2366 2367 1.16595
r2144 2365 2366 4.66379
r2145 2364 2370 3.73104
r2146 2364 2367 2.56509
r2147 2361 2362 9.32759
r2148 2360 2361 45.472
r2149 2359 2360 47.8039
r2150 2358 2359 4.66379
r2151 2357 2358 7.92845
r2152 2356 2357 4.66379
r2153 2355 2356 7.92845
r2154 2354 2355 4.66379
r2155 2353 2365 4.66379
r2156 2353 2362 1.39914
r2157 2350 2351 4.66379
r2158 2349 2350 7.92845
r2159 2348 2349 4.66379
r2160 2347 2348 1.16595
r2161 2346 2354 4.31401
r2162 2346 2351 3.61444
r2163 2342 2343 10.4935
r2164 2341 2342 11.4263
r2165 2340 2341 1.16595
r2166 2339 2347 27.5164
r2167 2339 2343 6.52931
r2168 2336 2337 9.32759
r2169 2335 2340 9.32759
r2170 2335 2337 1.39914
r2171 2330 2331 1.16595
r2172 2329 2333 9.32759
r2173 2329 2331 2.09871
r2174 2326 2327 9.32759
r2175 2325 2326 48.9698
r2176 2324 2325 44.306
r2177 2323 2324 4.66379
r2178 2322 2323 7.92845
r2179 2321 2322 4.66379
r2180 2320 2321 7.92845
r2181 2319 2320 4.66379
r2182 2318 2330 9.32759
r2183 2318 2327 1.39914
r2184 2315 2316 4.66379
r2185 2314 2315 7.92845
r2186 2313 2314 4.66379
r2187 2312 2313 1.16595
r2188 2311 2319 4.31401
r2189 2311 2316 3.61444
r2190 2308 2312 27.5164
r2191 2303 2304 11.4263
r2192 2302 2303 1.16595
r2193 2299 2300 9.32759
r2194 2298 2302 9.32759
r2195 2298 2300 1.39914
r2196 2293 2294 1.16595
r2197 2292 2296 9.32759
r2198 2292 2294 2.09871
r2199 2287 2293 9.32759
r2200 2283 2284 1.63233
r2201 2282 2283 10.9599
r2202 2281 2282 14.4578
r2203 2280 2281 12.8254
r2204 2279 2280 14.9241
r2205 2278 2279 3.26466
r2206 2277 2278 4.19742
r2207 2276 2277 0.466379
r2208 2275 2276 7.92845
r2209 2274 2275 4.66379
r2210 2273 2274 7.92845
r2211 2272 2273 4.66379
r2212 2271 2284 8.86121
r2213 2267 2268 4.66379
r2214 2266 2267 7.92845
r2215 2265 2266 4.66379
r2216 2264 2265 1.16595
r2217 2263 2272 4.31401
r2218 2263 2268 3.61444
r2219 2260 2261 10.4935
r2220 2259 2260 11.4263
r2221 2258 2259 1.16595
r2222 2257 2264 27.5164
r2223 2257 2261 6.52931
r2224 2253 2254 9.32759
r2225 2252 2258 9.32759
r2226 2252 2254 1.39914
r2227 2249 2250 11.4263
r2228 2248 2249 1.16595
r2229 2245 2246 9.32759
r2230 2244 2245 5.13017
r2231 2243 2248 9.32759
r2232 2243 2246 1.39914
r2233 2239 2240 5.82974
r2234 2238 2244 34.1623
r2235 2238 2240 15.0407
r2236 2236 2239 3.49785
r2237 2233 2234 6.06293
r2238 2232 2233 4.66379
r2239 2231 2232 4.89698
r2240 2230 2231 3.03147
r2241 2229 2230 4.66379
r2242 2228 2229 7.92845
r2243 2227 2228 4.66379
r2244 2224 2225 4.66379
r2245 2223 2224 6.7625
r2246 2222 2223 1.16595
r2247 2221 2222 4.66379
r2248 2220 2221 1.16595
r2249 2219 2227 4.31401
r2250 2219 2225 3.61444
r2251 2215 2216 4.66379
r2252 2214 2215 3.26466
r2253 2213 2214 12.1259
r2254 2212 2220 2.3319
r2255 2212 2216 4.4306
r2256 2209 2210 2.09871
r2257 2208 2209 10.4935
r2258 2207 2208 11.4263
r2259 2206 2207 1.16595
r2260 2205 2213 0.699569
r2261 2205 2210 4.4306
r2262 2201 2202 9.32759
r2263 2200 2206 8.97781
r2264 2200 2202 1.74892
r2265 2197 2198 1.16595
r2266 2196 2197 5.13017
r2267 2193 2194 1.16595
r2268 2192 2193 4.66379
r2269 2191 2196 3.73104
r2270 2191 2194 2.56509
r2271 2188 2192 4.66379
r2272 2188 2189 1.39914
r2273 2185 2186 5.13017
r2274 2181 2182 5.82974
r2275 2180 2185 34.1623
r2276 2180 2182 15.0407
r2277 2178 2181 3.49785
r2278 2175 2176 6.06293
r2279 2174 2175 4.66379
r2280 2173 2174 4.89698
r2281 2172 2173 3.03147
r2282 2171 2172 4.66379
r2283 2170 2171 7.92845
r2284 2169 2170 4.66379
r2285 2165 2166 4.66379
r2286 2164 2165 6.7625
r2287 2163 2164 1.16595
r2288 2162 2163 4.66379
r2289 2161 2162 1.16595
r2290 2160 2169 4.31401
r2291 2160 2166 3.61444
r2292 2157 2158 4.66379
r2293 2156 2157 3.26466
r2294 2155 2156 12.1259
r2295 2154 2161 2.3319
r2296 2154 2158 4.4306
r2297 2150 2151 2.09871
r2298 2149 2150 10.4935
r2299 2148 2149 11.4263
r2300 2147 2148 1.16595
r2301 2146 2155 0.699569
r2302 2146 2151 4.4306
r2303 2143 2144 9.32759
r2304 2142 2147 8.97781
r2305 2142 2144 1.74892
r2306 2139 2140 1.16595
r2307 2138 2139 5.13017
r2308 2134 2135 1.16595
r2309 2133 2134 4.66379
r2310 2132 2138 3.73104
r2311 2132 2135 2.56509
r2312 2129 2133 4.66379
r2313 2129 2130 1.39914
r2314 2124 2615 0.777784
r2315 2124 2271 3.73104
r2316 2119 2120 6.52931
r2317 2118 2119 0.932759
r2318 2117 2122 8.39483
r2319 2117 2120 1.86552
r2320 2114 2115 11.1931
r2321 2113 2118 3.26466
r2322 2113 2115 8.39483
r2323 2110 2111 4.4306
r2324 2109 2110 4.19742
r2325 2108 2109 0.466379
r2326 2105 2106 6.06293
r2327 2104 2108 4.4306
r2328 2104 2106 3.26466
r2329 2100 2105 15.0407
r2330 2100 2101 34.1623
r2331 2094 2095 0.23319
r2332 2093 2094 4.19742
r2333 2092 2093 0.23319
r2334 2091 2092 1.86552
r2335 2090 2095 3.96423
r2336 2087 2088 6.29612
r2337 2086 2091 2.09871
r2338 2086 2088 3.49785
r2339 2082 2087 2.79828
r2340 2082 2083 8.39483
r2341 2080 2083 4.19742
r2342 2077 2078 2.09871
r2343 2076 2080 12.5922
r2344 2076 2078 8.39483
r2345 2073 2074 0.23319
r2346 2072 2077 2.09871
r2347 2072 2074 8.39483
r2348 2067 2068 2.09871
r2349 2066 2067 6.29612
r2350 2065 2070 8.39483
r2351 2065 2068 2.09871
r2352 2063 2066 2.09871
r2353 2059 2060 4.19742
r2354 2058 2063 12.5922
r2355 2058 2060 4.19742
r2356 2056 2059 4.19742
r2357 2053 2054 6.29612
r2358 2052 2053 2.09871
r2359 2051 2056 12.5922
r2360 2051 2054 2.09871
r2361 2047 2048 8.16164
r2362 2046 2047 0.23319
r2363 2045 2046 10.4935
r2364 2044 2045 2.09871
r2365 2043 2052 2.09871
r2366 2043 2048 8.39483
r2367 2041 2044 8.39483
r2368 2037 2041 12.5922
r2369 2037 2038 4.19742
r2370 2034 2035 6.29612
r2371 2033 2038 8.39483
r2372 2033 2035 2.79828
r2373 2030 2031 1.86552
r2374 2029 2030 0.23319
r2375 2028 2029 4.19742
r2376 2027 2028 0.23319
r2377 2026 2034 3.49785
r2378 2026 2031 2.09871
r2379 2022 2023 6.06293
r2380 2021 2027 3.96423
r2381 2021 2023 10.4935
r2382 2018 2019 6.06293
r2383 2017 2022 34.1623
r2384 2017 2019 15.0407
r2385 2014 2015 0.466379
r2386 2013 2014 4.19742
r2387 2012 2013 4.4306
r2388 2011 2012 5.13017
r2389 2010 2011 11.1931
r2390 2009 2018 3.26466
r2391 2009 2015 4.4306
r2392 2006 2007 0.932759
r2393 2005 2006 6.52931
r2394 2004 2010 8.39483
r2395 2004 2007 3.26466
r2396 2001 2005 1.86552
r2397 2001 2002 8.39483
r2398 1997 2613 1.63233
r2399 1996 2605 3.03147
r2400 1996 2602 3.26466
r2401 1995 2574 5.13017
r2402 1995 2571 3.03147
r2403 1994 2545 6.99569
r2404 1994 2541 1.63233
r2405 1993 2375 1.63233
r2406 1993 2372 2.3319
r2407 1992 2253 1.63233
r2408 1992 2250 3.49785
r2409 1991 2422 2.79828
r2410 1990 2122 1.63233
r2411 1989 2114 0.699569
r2412 1989 2111 4.4306
r2413 1988 2236 17.9556
r2414 1988 2234 5.59655
r2415 1987 2101 4.66379
r2416 1987 2098 1.39914
r2417 1986 2098 5.59655
r2418 1986 2090 4.89698
r2419 1985 2336 1.63233
r2420 1985 2333 3.49785
r2421 1984 2201 1.63233
r2422 1984 2198 2.3319
r2423 1983 2073 4.66379
r2424 1983 2070 3.49785
r2425 1982 2189 2.79828
r2426 1982 2186 6.52931
r2427 1981 2178 17.9556
r2428 1981 2176 5.59655
r2429 1980 2308 5.36336
r2430 1980 2306 1.16595
r2431 1979 2306 6.99569
r2432 1979 2304 3.49785
r2433 1978 2299 1.63233
r2434 1978 2296 3.49785
r2435 1977 2143 1.63233
r2436 1977 2140 2.3319
r2437 1976 2130 2.79828
r2438 1975 2002 1.63233
r2439 1321 2525 81.03
r2440 1321 1322 12.2844
r2441 1318 1457 0.185185
r2442 1318 1322 22.1119
r2443 1313 2515 85.548
r2444 1313 1314 12.2844
r2445 1310 1456 0.185185
r2446 1310 1314 22.1119
r2447 1306 1455 0.185185
r2448 1306 1307 23.8708
r2449 1304 2604 96.0901
r2450 1304 1307 13.2616
r2451 1298 1454 0.185185
r2452 1298 1299 23.8708
r2453 1296 2593 23.8924
r2454 1296 1299 15.6192
r2455 1289 1290 11.1987
r2456 1288 2589 81.03
r2457 1288 1290 2.06291
r2458 1285 1453 0.185185
r2459 1285 1289 23.8708
r2460 1281 1452 0.185185
r2461 1281 1282 23.8708
r2462 1278 2507 15.2057
r2463 1273 1451 0.185185
r2464 1273 1275 22.1119
r2465 1271 1275 7.91659
r2466 1268 1450 0.185185
r2467 1268 1269 23.8708
r2468 1266 2583 23.8924
r2469 1266 1269 15.6192
r2470 1259 2500 85.548
r2471 1259 1260 12.2844
r2472 1256 1449 0.185185
r2473 1256 1260 22.1119
r2474 1252 1448 0.185185
r2475 1252 1253 23.8708
r2476 1250 2577 23.8924
r2477 1250 1253 15.6192
r2478 1243 1244 10.3735
r2479 1242 2573 81.03
r2480 1242 1244 1.9109
r2481 1239 1447 0.185185
r2482 1239 1243 22.1119
r2483 1235 1446 0.185185
r2484 1235 1236 22.1119
r2485 1233 2493 85.548
r2486 1233 1236 12.2844
r2487 1227 1445 0.185185
r2488 1227 1228 23.8708
r2489 1225 2563 96.0901
r2490 1225 1228 13.2616
r2491 1218 1219 11.1987
r2492 1217 2559 85.548
r2493 1217 1219 2.06291
r2494 1214 1444 0.185185
r2495 1214 1218 23.8708
r2496 1210 1443 0.185185
r2497 1210 1211 23.8708
r2498 1207 2485 15.2057
r2499 1202 1442 0.185185
r2500 1202 1204 22.1119
r2501 1200 1204 7.91659
r2502 1197 1441 0.185185
r2503 1197 1198 23.8708
r2504 1195 2555 23.8924
r2505 1195 1198 15.6192
r2506 1188 2480 96.0901
r2507 1188 1189 12.2844
r2508 1185 1440 0.185185
r2509 1185 1189 22.1119
r2510 1181 1437 0.185185
r2511 1181 1182 23.8708
r2512 1178 1179 11.1987
r2513 1174 1439 0.185185
r2514 1174 1178 23.8708
r2515 1170 1438 0.185185
r2516 1170 1171 23.8708
r2517 1168 2475 96.0901
r2518 1168 1171 13.2616
r2519 1162 1436 0.185185
r2520 1162 1163 23.8708
r2521 1160 2271 96.0901
r2522 1160 1163 13.2616
r2523 1154 1435 0.185185
r2524 1154 1155 22.1119
r2525 1152 2411 81.03
r2526 1152 1155 12.2844
r2527 1145 2470 81.03
r2528 1145 1146 12.2844
r2529 1142 1434 0.185185
r2530 1142 1146 22.1119
r2531 1138 1433 0.185185
r2532 1138 1139 22.1119
r2533 1136 2401 85.548
r2534 1136 1139 12.2844
r2535 1129 2460 85.548
r2536 1129 1130 12.2844
r2537 1126 1432 0.185185
r2538 1126 1130 22.1119
r2539 1122 1431 0.185185
r2540 1122 1123 22.1119
r2541 1120 1123 7.91659
r2542 1119 2392 15.2057
r2543 1114 1430 0.185185
r2544 1114 1117 23.8708
r2545 1109 1429 0.185185
r2546 1109 1110 23.8708
r2547 1103 1428 0.185185
r2548 1103 1107 23.8708
r2549 1099 1427 0.185185
r2550 1099 1100 23.8708
r2551 1096 2451 15.2057
r2552 1091 1426 0.185185
r2553 1091 1093 22.1119
r2554 1089 1093 7.91659
r2555 1086 1425 0.185185
r2556 1086 1087 22.1119
r2557 1084 2386 85.548
r2558 1084 1087 12.2844
r2559 1077 2445 85.548
r2560 1077 1078 12.2844
r2561 1074 1424 0.185185
r2562 1074 1078 22.1119
r2563 1069 2378 85.548
r2564 1069 1070 12.2844
r2565 1066 1423 0.185185
r2566 1066 1070 22.1119
r2567 1062 1422 0.185185
r2568 1062 1063 22.1119
r2569 1056 1421 0.185185
r2570 1056 1059 22.1119
r2571 1052 1420 0.185185
r2572 1052 1053 22.1119
r2573 1050 2437 85.548
r2574 1050 1053 12.2844
r2575 1044 1415 0.185185
r2576 1044 1045 22.1119
r2577 1042 1045 7.91659
r2578 1041 2374 15.2057
r2579 1036 1419 0.185185
r2580 1036 1039 23.8708
r2581 1031 1418 0.185185
r2582 1031 1032 23.8708
r2583 1025 1417 0.185185
r2584 1025 1029 23.8708
r2585 1021 1416 0.185185
r2586 1021 1022 23.8708
r2587 1018 2430 15.2057
r2588 1013 1414 0.185185
r2589 1013 1015 22.1119
r2590 1011 1015 7.91659
r2591 1008 1413 0.185185
r2592 1008 1009 22.1119
r2593 1006 2364 96.0901
r2594 1006 1009 12.2844
r2595 999 2424 96.0901
r2596 999 1000 12.2844
r2597 996 1412 0.185185
r2598 996 1000 22.1119
r2599 991 2353 96.0901
r2600 991 992 13.2616
r2601 988 1411 0.185185
r2602 988 992 23.8708
r2603 984 1410 0.185185
r2604 984 985 23.8708
r2605 978 1409 0.185185
r2606 978 982 23.8708
r2607 974 1408 0.185185
r2608 974 975 23.8708
r2609 972 2421 96.0901
r2610 972 975 13.2616
r2611 966 1407 0.185185
r2612 966 967 23.8708
r2613 960 1406 0.185185
r2614 960 964 23.8708
r2615 955 2238 81.03
r2616 955 956 12.2844
r2617 952 1405 0.185185
r2618 952 956 22.1119
r2619 947 2236 85.548
r2620 947 948 12.2844
r2621 944 1404 0.185185
r2622 944 948 22.1119
r2623 940 1403 0.185185
r2624 940 941 22.1119
r2625 934 1402 0.185185
r2626 934 938 22.1119
r2627 930 1401 0.185185
r2628 930 931 22.1119
r2629 924 1400 0.185185
r2630 924 927 22.1119
r2631 919 2346 81.03
r2632 919 920 13.2616
r2633 916 1399 0.185185
r2634 916 920 23.8708
r2635 912 1398 0.185185
r2636 912 913 23.8708
r2637 909 2219 15.2057
r2638 904 1397 0.185185
r2639 904 906 22.1119
r2640 902 906 7.91659
r2641 898 2090 96.0901
r2642 898 899 13.2616
r2643 895 1395 0.185185
r2644 895 899 23.8708
r2645 890 2212 85.548
r2646 890 891 12.2844
r2647 887 1396 0.185185
r2648 887 891 22.1119
r2649 883 1394 0.185185
r2650 883 884 23.8708
r2651 881 2086 96.0901
r2652 881 884 13.2616
r2653 874 2082 96.0901
r2654 874 875 13.2616
r2655 871 1391 0.185185
r2656 871 875 23.8708
r2657 866 2339 85.548
r2658 866 867 12.2844
r2659 863 1393 0.185185
r2660 863 867 22.1119
r2661 859 1392 0.185185
r2662 859 860 22.1119
r2663 857 2205 85.548
r2664 857 860 12.2844
r2665 851 852 11.1987
r2666 850 1390 0.185185
r2667 850 852 23.8708
r2668 848 2080 96.0901
r2669 848 851 2.06291
r2670 841 2076 23.8924
r2671 841 842 15.6192
r2672 838 1389 0.185185
r2673 838 842 23.8708
r2674 833 2335 96.0901
r2675 833 834 13.2616
r2676 830 1388 0.185185
r2677 830 834 23.8708
r2678 826 1387 0.185185
r2679 826 827 23.8708
r2680 823 2200 15.2057
r2681 818 1386 0.185185
r2682 818 820 22.1119
r2683 816 820 7.91659
r2684 813 814 11.1987
r2685 812 1384 0.185185
r2686 812 814 23.8708
r2687 810 2065 96.0901
r2688 810 813 2.06291
r2689 803 2191 96.0901
r2690 803 804 12.2844
r2691 800 1385 0.185185
r2692 800 804 22.1119
r2693 795 2318 96.0901
r2694 795 796 13.2616
r2695 792 1383 0.185185
r2696 792 796 23.8708
r2697 788 1382 0.185185
r2698 788 789 23.8708
r2699 786 2188 96.0901
r2700 786 789 13.2616
r2701 779 780 11.1987
r2702 778 2063 96.0901
r2703 778 780 2.06291
r2704 775 1381 0.185185
r2705 775 779 23.8708
r2706 771 772 11.1987
r2707 770 1380 0.185185
r2708 770 772 23.8708
r2709 768 2058 23.8924
r2710 768 771 4.42053
r2711 761 762 11.1987
r2712 760 2056 23.8924
r2713 760 762 4.42053
r2714 757 1379 0.185185
r2715 757 761 23.8708
r2716 753 754 11.1987
r2717 752 1378 0.185185
r2718 752 754 23.8708
r2719 750 2051 96.0901
r2720 750 753 2.06291
r2721 743 2180 81.03
r2722 743 744 12.2844
r2723 740 1376 0.185185
r2724 740 744 22.1119
r2725 735 736 11.1987
r2726 734 2043 96.0901
r2727 734 736 2.06291
r2728 731 1377 0.185185
r2729 731 735 23.8708
r2730 726 2178 85.548
r2731 726 727 12.2844
r2732 723 1375 0.185185
r2733 723 727 22.1119
r2734 719 1374 0.185185
r2735 719 720 23.8708
r2736 717 2041 23.8924
r2737 717 720 15.6192
r2738 710 711 11.1987
r2739 709 2037 96.0901
r2740 709 711 2.06291
r2741 706 1373 0.185185
r2742 706 710 23.8708
r2743 702 1372 0.185185
r2744 702 703 23.8708
r2745 700 2033 96.0901
r2746 700 703 13.2616
r2747 693 2026 96.0901
r2748 693 694 13.2616
r2749 690 1371 0.185185
r2750 690 694 23.8708
r2751 685 2311 81.03
r2752 685 686 13.2616
r2753 682 1369 0.185185
r2754 682 686 23.8708
r2755 678 1368 0.185185
r2756 678 679 23.8708
r2757 675 2160 15.2057
r2758 670 1367 0.185185
r2759 670 672 22.1119
r2760 668 672 7.91659
r2761 665 1370 0.185185
r2762 665 666 23.8708
r2763 663 2021 96.0901
r2764 663 666 13.2616
r2765 656 2154 85.548
r2766 656 657 12.2844
r2767 653 1366 0.185185
r2768 653 657 22.1119
r2769 649 1363 0.185185
r2770 649 650 22.1119
r2771 643 1362 0.185185
r2772 643 647 22.1119
r2773 638 2308 85.548
r2774 638 639 12.2844
r2775 635 1365 0.185185
r2776 635 639 22.1119
r2777 631 1364 0.185185
r2778 631 632 22.1119
r2779 629 2146 85.548
r2780 629 632 12.2844
r2781 623 1361 0.185185
r2782 623 624 22.1119
r2783 617 1360 0.185185
r2784 617 620 22.1119
r2785 612 2298 96.0901
r2786 612 613 13.2616
r2787 609 1359 0.185185
r2788 609 613 23.8708
r2789 605 1358 0.185185
r2790 605 606 23.8708
r2791 602 2142 15.2057
r2792 597 1357 0.185185
r2793 597 599 22.1119
r2794 595 599 7.91659
r2795 591 2132 96.0901
r2796 591 592 12.2844
r2797 588 1356 0.185185
r2798 588 592 22.1119
r2799 583 2287 96.0901
r2800 583 584 13.2616
r2801 580 1355 0.185185
r2802 580 584 23.8708
r2803 576 1354 0.185185
r2804 576 577 23.8708
r2805 574 2129 96.0901
r2806 574 577 13.2616
r2807 568 1353 0.185185
r2808 568 569 23.8708
r2809 562 1352 0.185185
r2810 562 566 23.8708
r2811 557 2534 19.38
r2812 550 551 51.2835
r2813 549 550 74.5942
r2814 548 549 51.2835
r2815 547 2525 12.0027
r2816 547 551 33.8005
r2817 544 545 51.2835
r2818 543 544 200.472
r2819 542 543 51.2835
r2820 541 542 74.5942
r2821 540 541 51.2835
r2822 539 540 74.5942
r2823 538 539 51.2835
r2824 534 535 51.2835
r2825 533 534 74.5942
r2826 532 533 51.2835
r2827 530 2500 8.22762
r2828 530 532 32.635
r2829 527 528 51.2835
r2830 526 527 74.5942
r2831 525 526 51.2835
r2832 522 523 51.2835
r2833 517 518 51.2835
r2834 516 517 74.5942
r2835 515 516 51.2835
r2836 514 2485 8.63349
r2837 514 518 33.8005
r2838 511 512 51.2835
r2839 508 509 51.2835
r2840 504 505 51.2835
r2841 503 504 74.5942
r2842 502 503 51.2835
r2843 501 2470 8.34083
r2844 501 505 33.8005
r2845 498 499 51.2835
r2846 497 498 200.472
r2847 496 497 51.2835
r2848 495 496 74.5942
r2849 494 495 51.2835
r2850 493 494 74.5942
r2851 492 493 51.2835
r2852 487 488 51.2835
r2853 486 487 74.5942
r2854 485 486 51.2835
r2855 484 2451 23.4337
r2856 484 488 33.8005
r2857 481 482 51.2835
r2858 480 481 74.5942
r2859 479 480 51.2835
r2860 477 2437 8.65319
r2861 477 479 32.635
r2862 474 475 51.2835
r2863 470 471 51.2835
r2864 469 470 74.5942
r2865 468 469 51.2835
r2866 464 465 51.2835
r2867 463 2424 9.14803
r2868 463 465 34.966
r2869 454 455 51.2835
r2870 453 454 74.5942
r2871 452 453 51.2835
r2872 451 2411 12.0027
r2873 451 455 33.8005
r2874 448 449 51.2835
r2875 447 448 200.472
r2876 446 447 51.2835
r2877 445 446 74.5942
r2878 444 445 51.2835
r2879 443 444 74.5942
r2880 442 443 51.2835
r2881 437 438 51.2835
r2882 436 437 74.5942
r2883 435 436 51.2835
r2884 434 2392 23.4337
r2885 434 438 33.8005
r2886 431 432 51.2835
r2887 430 431 74.5942
r2888 429 430 51.2835
r2889 427 2378 8.65319
r2890 427 429 32.635
r2891 424 425 51.2835
r2892 420 421 51.2835
r2893 419 420 74.5942
r2894 418 419 51.2835
r2895 414 415 51.2835
r2896 413 2364 9.14803
r2897 413 415 34.966
r2898 410 411 755.266
r2899 409 410 163.175
r2900 408 409 51.2835
r2901 407 408 74.5942
r2902 406 407 51.2835
r2903 405 406 74.5942
r2904 404 405 51.2835
r2905 401 402 51.2835
r2906 400 401 74.5942
r2907 399 400 51.2835
r2908 398 399 74.5942
r2909 397 398 51.2835
r2910 396 397 74.5942
r2911 395 396 51.2835
r2912 393 2339 8.50653
r2913 393 395 32.635
r2914 390 391 51.2835
r2915 386 387 51.2835
r2916 385 2329 9.65625
r2917 385 387 30.3039
r2918 382 383 51.2835
r2919 381 382 74.5942
r2920 380 381 51.2835
r2921 379 380 74.5942
r2922 378 379 51.2835
r2923 375 376 51.2835
r2924 374 375 74.5942
r2925 373 374 51.2835
r2926 372 373 74.5942
r2927 371 372 51.2835
r2928 370 371 74.5942
r2929 369 370 51.2835
r2930 367 2308 8.50653
r2931 367 369 32.635
r2932 364 365 51.2835
r2933 360 361 51.2835
r2934 359 2292 9.65625
r2935 359 361 30.3039
r2936 353 354 55.9457
r2937 352 353 72.2631
r2938 351 352 51.2835
r2939 350 351 74.5942
r2940 349 350 51.2835
r2941 348 2604 28.9688
r2942 348 1304 0.294702
r2943 348 354 34.966
r2944 344 345 51.2835
r2945 341 342 51.2835
r2946 338 339 51.2835
r2947 335 336 51.2835
r2948 334 2581 9.65625
r2949 334 338 37.2971
r2950 334 336 37.2971
r2951 331 332 51.2835
r2952 326 327 51.2835
r2953 325 2563 8.83793
r2954 325 327 30.3039
r2955 318 319 51.2835
r2956 317 2551 8.50653
r2957 317 321 41.9592
r2958 317 319 32.635
r2959 314 315 51.2835
r2960 311 312 55.9457
r2961 310 311 575.774
r2962 309 310 51.2835
r2963 308 309 74.5942
r2964 307 308 51.2835
r2965 306 307 74.5942